Cam833HModsRad51Docked_Cam833-Acid_3
 OpenBabel07232519463D

 65 68  0  0  1  0  0  0  0  0999 V2000
  141.4440   76.0010  215.4910 H   0  0  0  0  0  0  0  0  0  0  0  0
  139.0240   82.8560  220.5620 C   0  0  0  0  0  0  0  0  0  0  0  0
  140.2010   82.3380  219.9760 C   0  0  0  0  0  0  0  0  0  0  0  0
  140.8520   81.2320  220.5540 C   0  0  0  0  0  0  0  0  0  0  0  0
  140.3630   80.6310  221.7320 C   0  0  0  0  0  0  0  0  0  0  0  0
  141.1380   79.4570  222.3360 C   0  0  2  0  0  0  0  0  0  0  0  0
  142.4880   79.9190  222.8970 C   0  0  0  0  0  0  0  0  0  0  0  0
  140.8340   76.5090  219.8690 C   0  0  1  0  0  0  0  0  0  0  0  0
  140.2700   75.8270  217.5860 C   0  0  2  0  0  0  0  0  0  0  0  0
  139.4660   74.9750  218.5820 C   0  0  0  0  0  0  0  0  0  0  0  0
  139.6210   74.6680  221.0550 C   0  0  0  0  0  0  0  0  0  0  0  0
  138.8470   69.2650  223.2520 C   0  0  0  0  0  0  0  0  0  0  0  0
  138.4490   80.4240  223.7170 Cl  0  0  0  0  0  0  0  0  0  0  0  0
  139.1660   81.1310  222.3090 C   0  0  0  0  0  0  0  0  0  0  0  0
  138.5160   82.2340  221.7190 C   0  0  0  0  0  0  0  0  0  0  0  0
  138.3220   83.9370  220.0750 O   0  0  0  0  0  0  0  0  0  0  0  0
  138.8390   84.6020  218.9280 C   0  0  0  0  0  0  0  0  0  0  0  0
  141.3720   78.3800  221.3770 N   0  0  0  0  0  0  0  0  0  0  0  0
  140.4020   77.6350  220.8320 C   0  0  0  0  0  0  0  0  0  0  0  0
  139.2050   77.8260  221.0680 O   0  0  0  0  0  0  0  0  0  0  0  0
  139.9320   75.3420  219.9220 N   0  0  0  0  0  0  0  0  0  0  0  0
  141.4760   75.0460  217.0330 C   0  0  0  0  0  0  0  0  0  0  0  0
  140.7570   77.0140  218.4170 C   0  0  0  0  0  0  0  0  0  0  0  0
  140.2120   74.8750  222.1170 O   0  0  0  0  0  0  0  0  0  0  0  0
  138.4660   73.6570  221.0380 C   0  0  0  0  0  0  0  0  0  0  0  0
  138.6100   72.6840  222.1170 N   0  0  0  0  0  0  0  0  0  0  0  0
  139.0030   71.4130  221.9490 C   0  0  0  0  0  0  0  0  0  0  0  0
  139.1450   70.8780  220.8470 O   0  0  0  0  0  0  0  0  0  0  0  0
  139.2060   70.6270  223.2120 C   0  0  0  0  0  0  0  0  0  0  0  0
  139.8000   71.2470  224.2590 N   0  0  0  0  0  0  0  0  0  0  0  0
  140.0460   70.5550  225.3890 C   0  0  0  0  0  0  0  0  0  0  0  0
  139.7310   69.1740  225.5020 C   0  0  0  0  0  0  0  0  0  0  0  0
  139.1190   68.5280  224.4140 C   0  0  0  0  0  0  0  0  0  0  0  0
  140.6120   71.2010  226.5050 C   0  0  0  0  0  0  0  0  0  0  0  0
  140.8480   70.5010  227.7020 C   0  0  0  0  0  0  0  0  0  0  0  0
  140.5780   69.1220  227.7820 C   0  0  0  0  0  0  0  0  0  0  0  0
  140.8480   68.4380  228.9170 F   0  0  0  0  0  0  0  0  0  0  0  0
  140.0260   68.4540  226.6780 C   0  0  0  0  0  0  0  0  0  0  0  0
  142.1660   74.3790  217.8360 O   0  0  0  0  0  0  0  0  0  0  0  0
  141.6710   75.1200  215.7990 O   0  0  0  0  0  0  0  0  0  0  0  0
  140.6270   82.7630  219.0800 H   0  0  0  0  0  0  0  0  0  0  0  0
  141.7430   80.8410  220.0840 H   0  0  0  0  0  0  0  0  0  0  0  0
  140.5780   79.0160  223.1600 H   0  0  0  0  0  0  0  0  0  0  0  0
  142.3590   80.6630  223.6830 H   0  0  0  0  0  0  0  0  0  0  0  0
  143.0390   79.0780  223.3170 H   0  0  0  0  0  0  0  0  0  0  0  0
  143.1210   80.3520  222.1220 H   0  0  0  0  0  0  0  0  0  0  0  0
  141.8480   76.1730  220.1010 H   0  0  0  0  0  0  0  0  0  0  0  0
  139.6480   76.1510  216.7490 H   0  0  0  0  0  0  0  0  0  0  0  0
  139.5870   73.9080  218.3850 H   0  0  0  0  0  0  0  0  0  0  0  0
  138.4040   75.2070  218.5010 H   0  0  0  0  0  0  0  0  0  0  0  0
  138.3980   68.7890  222.3890 H   0  0  0  0  0  0  0  0  0  0  0  0
  137.6060   82.6120  222.1630 H   0  0  0  0  0  0  0  0  0  0  0  0
  138.1930   85.4450  218.6810 H   0  0  0  0  0  0  0  0  0  0  0  0
  139.8390   84.9950  219.1140 H   0  0  0  0  0  0  0  0  0  0  0  0
  138.8640   83.9370  218.0630 H   0  0  0  0  0  0  0  0  0  0  0  0
  142.3340   78.1530  221.1550 H   0  0  0  0  0  0  0  0  0  0  0  0
  140.0360   77.8270  218.3130 H   0  0  0  0  0  0  0  0  0  0  0  0
  141.7180   77.4070  218.0790 H   0  0  0  0  0  0  0  0  0  0  0  0
  138.3650   73.1570  220.0760 H   0  0  0  0  0  0  0  0  0  0  0  0
  137.5380   74.2090  221.1970 H   0  0  0  0  0  0  0  0  0  0  0  0
  138.5280   73.0340  223.0700 H   0  0  0  0  0  0  0  0  0  0  0  0
  138.8840   67.4770  224.4540 H   0  0  0  0  0  0  0  0  0  0  0  0
  140.8420   72.2560  226.4480 H   0  0  0  0  0  0  0  0  0  0  0  0
  141.2690   71.0170  228.5510 H   0  0  0  0  0  0  0  0  0  0  0  0
  139.8150   67.3970  226.7510 H   0  0  0  0  0  0  0  0  0  0  0  0
  1 40  1  0  0  0  0
  2  3  2  0  0  0  0
  2 15  1  0  0  0  0
  2 16  1  0  0  0  0
  3  4  1  0  0  0  0
  3 41  1  0  0  0  0
  4  5  2  0  0  0  0
  4 42  1  0  0  0  0
  5  6  1  0  0  0  0
  5 14  1  0  0  0  0
  6  7  1  0  0  0  0
  6 18  1  0  0  0  0
  6 43  1  1  0  0  0
  7 44  1  0  0  0  0
  7 45  1  0  0  0  0
  7 46  1  0  0  0  0
  8 19  1  0  0  0  0
  8 21  1  0  0  0  0
  8 23  1  0  0  0  0
  8 47  1  1  0  0  0
  9 10  1  0  0  0  0
  9 22  1  0  0  0  0
  9 23  1  0  0  0  0
  9 48  1  6  0  0  0
 10 21  1  0  0  0  0
 10 49  1  0  0  0  0
 10 50  1  0  0  0  0
 11 21  1  0  0  0  0
 11 24  2  0  0  0  0
 11 25  1  0  0  0  0
 12 29  2  0  0  0  0
 12 33  1  0  0  0  0
 12 51  1  0  0  0  0
 13 14  1  0  0  0  0
 14 15  2  0  0  0  0
 15 52  1  0  0  0  0
 16 17  1  0  0  0  0
 17 53  1  0  0  0  0
 17 54  1  0  0  0  0
 17 55  1  0  0  0  0
 18 19  1  0  0  0  0
 18 56  1  0  0  0  0
 19 20  2  0  0  0  0
 22 39  2  0  0  0  0
 22 40  1  0  0  0  0
 23 57  1  0  0  0  0
 23 58  1  0  0  0  0
 25 26  1  0  0  0  0
 25 59  1  0  0  0  0
 25 60  1  0  0  0  0
 26 27  1  0  0  0  0
 26 61  1  0  0  0  0
 27 28  2  0  0  0  0
 27 29  1  0  0  0  0
 29 30  1  0  0  0  0
 30 31  2  0  0  0  0
 31 32  1  0  0  0  0
 31 34  1  0  0  0  0
 32 33  2  0  0  0  0
 32 38  1  0  0  0  0
 33 62  1  0  0  0  0
 34 35  2  0  0  0  0
 34 63  1  0  0  0  0
 35 36  1  0  0  0  0
 35 64  1  0  0  0  0
 36 37  1  0  0  0  0
 36 38  2  0  0  0  0
 38 65  1  0  0  0  0
M  END
$$$$
